LAMMPS (23 Jun 2022 - Update 4)
# Initialization
units metal
boundary p p p
atom_style full
neighbor 1.0 bin
neigh_modify delay 1

# System definition
read_data ../SilicaBlock/amorphousSiO.data
Reading data file ...
  orthogonal box = (1.2258943 1.2587857 -1.0292656) to (19.359683 19.326792 21.614843)
  reading atoms ...
  576 atoms
  reading velocities ...
  576 velocities
Finding 1-2 1-3 1-4 neighbors ...
     0 = max # of 1-2 neighbors
     0 = max # of 1-3 neighbors
     0 = max # of 1-4 neighbors
     1 = max # of special neighbors

# Simulation settings
pair_style vashishta
pair_coeff * * ../SilicaBlock/SiO.1990.vashishta Si O
Reading vashishta potential file ../SilicaBlock/SiO.1990.vashishta with DATE: 2015-10-14
dump dmp all atom 1000 dump.lammpstrj

# Run
fix nvt1 all nvt temp 300 300 0.1
timestep 0.001
thermo 1000
variable var loop 45
label loop
change_box all z scale 1.005 remap
Changing box ...
  orthogonal box = (1.2258943 1.2587857 -1.0858759) to (19.359683 19.326792 21.671454)
run 2000
  update every 1 steps, delay 1 steps, check yes
Step          Temp          E_pair         E_mol          TotEng         Press
0   318.82966     -5179.2796      0             -5155.5827     -13368.068
Loop time of 3.71042 on 4 procs for 2000 steps with 576 atoms

next var
jump input.lammps loop
change_box all z scale 1.005 remap
Changing box ...
  orthogonal box = (1.2258943 1.2587857 -1.1427692) to (19.359683 19.326792 21.728347)
run 2000
Step          Temp          E_pair         E_mol          TotEng         Press
2000   296.85504     -5177.7895      0             -5155.7258     -24112.769
Loop time of 3.69737 on 4 procs for 2000 steps with 576 atoms

next var
jump input.lammps loop
change_box all z scale 1.005 remap
Changing box ...
  orthogonal box = (1.2258943 1.2587857 -1.199947) to (19.359683 19.326792 21.785525)
run 2000
Step          Temp          E_pair         E_mol          TotEng         Press
4000   309.76218     -5178.1882      0             -5155.1653     -21936.979
Loop time of 3.69333 on 4 procs for 2000 steps with 576 atoms

next var
jump input.lammps loop
change_box all z scale 1.005 remap
Changing box ...
  orthogonal box = (1.2258943 1.2587857 -1.2574107) to (19.359683 19.326792 21.842988)
run 2000
Step          Temp          E_pair         E_mol          TotEng         Press
6000   292.2221      -5177.2931      0             -5155.5738     -25634.086
Loop time of 3.72178 on 4 procs for 2000 steps with 576 atoms

next var
jump input.lammps loop
change_box all z scale 1.005 remap
Changing box ...
  orthogonal box = (1.2258943 1.2587857 -1.3151617) to (19.359683 19.326792 21.900739)
run 2000
Step          Temp          E_pair         E_mol          TotEng         Press
8000   304.52505     -5177.6674      0             -5155.0337     -25275.085
Loop time of 3.88952 on 4 procs for 2000 steps with 576 atoms

next var
jump input.lammps loop
change_box all z scale 1.005 remap
Changing box ...
  orthogonal box = (1.2258943 1.2587857 -1.3732015) to (19.359683 19.326792 21.958779)
run 2000
Step          Temp          E_pair         E_mol          TotEng         Press
10000   289.70888     -5176.0029      0             -5154.4704     -32185.182
Loop time of 4.18396 on 4 procs for 2000 steps with 576 atoms

next var
jump input.lammps loop
change_box all z scale 1.005 remap
Changing box ...
  orthogonal box = (1.2258943 1.2587857 -1.4315314) to (19.359683 19.326792 22.017109)
run 2000
Step          Temp          E_pair         E_mol          TotEng         Press
12000   289.5032      -5174.4368      0             -5152.9196     -38019.86
Loop time of 4.68597 on 4 procs for 2000 steps with 576 atoms

next var
jump input.lammps loop
change_box all z scale 1.005 remap
Changing box ...
  orthogonal box = (1.2258943 1.2587857 -1.490153) to (19.359683 19.326792 22.075731)
run 2000
Step          Temp          E_pair         E_mol          TotEng         Press
14000   296.60983     -5172.3193      0             -5150.2739     -42623.665
Loop time of 4.66613 on 4 procs for 2000 steps with 576 atoms

next var
jump input.lammps loop
change_box all z scale 1.005 remap
Changing box ...
  orthogonal box = (1.2258943 1.2587857 -1.5490677) to (19.359683 19.326792 22.134645)
run 2000
Step          Temp          E_pair         E_mol          TotEng         Press
16000   318.17324     -5169.6843      0             -5146.0362     -43446.731
Loop time of 4.60117 on 4 procs for 2000 steps with 576 atoms

next var
jump input.lammps loop
change_box all z scale 1.005 remap
Changing box ...
  orthogonal box = (1.2258943 1.2587857 -1.608277) to (19.359683 19.326792 22.193855)
run 2000
Step          Temp          E_pair         E_mol          TotEng         Press
18000   318.9976      -5168.5435      0             -5144.8342     -45412.513
Loop time of 4.62367 on 4 procs for 2000 steps with 576 atoms

next var
jump input.lammps loop
change_box all z scale 1.005 remap
Changing box ...
  orthogonal box = (1.2258943 1.2587857 -1.6677823) to (19.359683 19.326792 22.25336)
run 2000
Step          Temp          E_pair         E_mol          TotEng         Press
20000   305.82207     -5167.1306      0             -5144.4005     -51571.491
Loop time of 4.57419 on 4 procs for 2000 steps with 576 atoms

next var
jump input.lammps loop
change_box all z scale 1.005 remap
Changing box ...
  orthogonal box = (1.2258943 1.2587857 -1.7275852) to (19.359683 19.326792 22.313163)
run 2000
Step          Temp          E_pair         E_mol          TotEng         Press
22000   305.3779      -5165.373       0             -5142.6759     -52548.484
Loop time of 5.58503 on 4 procs for 2000 steps with 576 atoms

next var
jump input.lammps loop
change_box all z scale 1.005 remap
Changing box ...
  orthogonal box = (1.2258943 1.2587857 -1.7876871) to (19.359683 19.326792 22.373265)
run 2000
Step          Temp          E_pair         E_mol          TotEng         Press
24000   307.31556     -5163.3586      0             -5140.5175     -59700.326
Loop time of 4.5347 on 4 procs for 2000 steps with 576 atoms

next var
jump input.lammps loop
change_box all z scale 1.005 remap
Changing box ...
  orthogonal box = (1.2258943 1.2587857 -1.8480894) to (19.359683 19.326792 22.433667)
run 2000
Step          Temp          E_pair         E_mol          TotEng         Press
26000   302.43825     -5163.0233      0             -5140.5447     -62542.241
Loop time of 4.49275 on 4 procs for 2000 steps with 576 atoms

next var
jump input.lammps loop
change_box all z scale 1.005 remap
Changing box ...
  orthogonal box = (1.2258943 1.2587857 -1.9087938) to (19.359683 19.326792 22.494372)
run 2000
Step          Temp          E_pair         E_mol          TotEng         Press
28000   290.24941     -5159.4964      0             -5137.9237     -56280.242
Loop time of 4.51964 on 4 procs for 2000 steps with 576 atoms

next var
jump input.lammps loop
change_box all z scale 1.005 remap
Changing box ...
  orthogonal box = (1.2258943 1.2587857 -1.9698017) to (19.359683 19.326792 22.555379)
run 2000
Step          Temp          E_pair         E_mol          TotEng         Press
30000   295.21289     -5156.5109      0             -5134.5693     -69387.692
Loop time of 4.46491 on 4 procs for 2000 steps with 576 atoms

next var
jump input.lammps loop
change_box all z scale 1.005 remap
Changing box ...
  orthogonal box = (1.2258943 1.2587857 -2.0311147) to (19.359683 19.326792 22.616692)
run 2000
Step          Temp          E_pair         E_mol          TotEng         Press
32000   305.23004     -5154.2511      0             -5131.565      -69820.471
Loop time of 4.47029 on 4 procs for 2000 steps with 576 atoms

next var
jump input.lammps loop
change_box all z scale 1.005 remap
Changing box ...
  orthogonal box = (1.2258943 1.2587857 -2.0927342) to (19.359683 19.326792 22.678312)
run 2000
Step          Temp          E_pair         E_mol          TotEng         Press
34000   327.88042     -5150.9617      0             -5126.5922     -69345.682
Loop time of 4.45037 on 4 procs for 2000 steps with 576 atoms

next var
jump input.lammps loop
change_box all z scale 1.005 remap
Changing box ...
  orthogonal box = (1.2258943 1.2587857 -2.1546618) to (19.359683 19.326792 22.74024)
run 2000
Step          Temp          E_pair         E_mol          TotEng         Press
36000   327.42561     -5146.7662      0             -5122.4304     -72812.945
Loop time of 4.4136 on 4 procs for 2000 steps with 576 atoms

next var
jump input.lammps loop
change_box all z scale 1.005 remap
Changing box ...
  orthogonal box = (1.2258943 1.2587857 -2.2168991) to (19.359683 19.326792 22.802477)
run 2000
Step          Temp          E_pair         E_mol          TotEng         Press
38000   307.62081     -5144.0279      0             -5121.1641     -71762.981
Loop time of 4.40614 on 4 procs for 2000 steps with 576 atoms

next var
jump input.lammps loop
change_box all z scale 1.005 remap
Changing box ...
  orthogonal box = (1.2258943 1.2587857 -2.2794475) to (19.359683 19.326792 22.865025)
run 2000
Step          Temp          E_pair         E_mol          TotEng         Press
40000   291.80597     -5143.5633      0             -5121.875      -77713.406
Loop time of 4.3907 on 4 procs for 2000 steps with 576 atoms

next var
jump input.lammps loop
change_box all z scale 1.005 remap
Changing box ...
  orthogonal box = (1.2258943 1.2587857 -2.3423087) to (19.359683 19.326792 22.927886)
run 2000
Step          Temp          E_pair         E_mol          TotEng         Press
42000   297.76286     -5138.4333      0             -5116.3022     -79409.443
Loop time of 4.39588 on 4 procs for 2000 steps with 576 atoms

next var
jump input.lammps loop
change_box all z scale 1.005 remap
Changing box ...
  orthogonal box = (1.2258943 1.2587857 -2.4054842) to (19.359683 19.326792 22.991062)
run 2000
Step          Temp          E_pair         E_mol          TotEng         Press
44000   295.53739     -5137.7051      0             -5115.7394     -79773.953
Loop time of 4.37507 on 4 procs for 2000 steps with 576 atoms

next var
jump input.lammps loop
change_box all z scale 1.005 remap
Changing box ...
  orthogonal box = (1.2258943 1.2587857 -2.4689756) to (19.359683 19.326792 23.054553)
run 2000
Step          Temp          E_pair         E_mol          TotEng         Press
46000   292.82559     -5134.3211      0             -5112.5569     -82299.629
Loop time of 4.39038 on 4 procs for 2000 steps with 576 atoms

next var
jump input.lammps loop
change_box all z scale 1.005 remap
Changing box ...
  orthogonal box = (1.2258943 1.2587857 -2.5327844) to (19.359683 19.326792 23.118362)
run 2000
Step          Temp          E_pair         E_mol          TotEng         Press
48000   278.90064     -5129.9655      0             -5109.2363     -84576.156
Loop time of 4.37751 on 4 procs for 2000 steps with 576 atoms

next var
jump input.lammps loop
change_box all z scale 1.005 remap
Changing box ...
  orthogonal box = (1.2258943 1.2587857 -2.5969122) to (19.359683 19.326792 23.18249)
run 2000
Step          Temp          E_pair         E_mol          TotEng         Press
50000   288.96282     -5126.8485      0             -5105.3715     -90478.263
Loop time of 4.4358 on 4 procs for 2000 steps with 576 atoms

next var
jump input.lammps loop
change_box all z scale 1.005 remap
Changing box ...
  orthogonal box = (1.2258943 1.2587857 -2.6613608) to (19.359683 19.326792 23.246938)
run 2000
Step          Temp          E_pair         E_mol          TotEng         Press
52000   314.38593     -5126.4387      0             -5103.0721     -78722.992
Loop time of 4.49071 on 4 procs for 2000 steps with 576 atoms

next var
jump input.lammps loop
change_box all z scale 1.005 remap
Changing box ...
  orthogonal box = (1.2258943 1.2587857 -2.7261315) to (19.359683 19.326792 23.311709)
run 2000
Step          Temp          E_pair         E_mol          TotEng         Press
54000   306.30869     -5125.8675      0             -5103.1012     -82333.923
Loop time of 4.48916 on 4 procs for 2000 steps with 576 atoms

next var
jump input.lammps loop
change_box all z scale 1.005 remap
Changing box ...
  orthogonal box = (1.2258943 1.2587857 -2.7912261) to (19.359683 19.326792 23.376804)
run 2000
Step          Temp          E_pair         E_mol          TotEng         Press
56000   283.68424     -5122.957       0             -5101.8723     -79691.218
Loop time of 4.49069 on 4 procs for 2000 steps with 576 atoms

next var
jump input.lammps loop
change_box all z scale 1.005 remap
Changing box ...
  orthogonal box = (1.2258943 1.2587857 -2.8566462) to (19.359683 19.326792 23.442224)
run 2000
Step          Temp          E_pair         E_mol          TotEng         Press
58000   291.60644     -5119.703       0             -5098.0295     -84345.363
Loop time of 4.54667 on 4 procs for 2000 steps with 576 atoms

next var
jump input.lammps loop
change_box all z scale 1.005 remap
Changing box ...
  orthogonal box = (1.2258943 1.2587857 -2.9223934) to (19.359683 19.326792 23.507971)
run 2000
Step          Temp          E_pair         E_mol          TotEng         Press
60000   306.62793     -5118.1862      0             -5095.3962     -75242.8
Loop time of 4.5696 on 4 procs for 2000 steps with 576 atoms

next var
jump input.lammps loop
change_box all z scale 1.005 remap
Changing box ...
  orthogonal box = (1.2258943 1.2587857 -2.9884693) to (19.359683 19.326792 23.574047)
run 2000
Step          Temp          E_pair         E_mol          TotEng         Press
62000   306.58315     -5114.3801      0             -5091.5934     -76503.222
Loop time of 4.52784 on 4 procs for 2000 steps with 576 atoms

next var
jump input.lammps loop
change_box all z scale 1.005 remap
Changing box ...
  orthogonal box = (1.2258943 1.2587857 -3.0548756) to (19.359683 19.326792 23.640453)
run 2000
Step          Temp          E_pair         E_mol          TotEng         Press
64000   299.63457     -5108.7786      0             -5086.5083     -82395.413
Loop time of 4.53723 on 4 procs for 2000 steps with 576 atoms

next var
jump input.lammps loop
change_box all z scale 1.005 remap
Changing box ...
  orthogonal box = (1.2258943 1.2587857 -3.1216139) to (19.359683 19.326792 23.707192)
run 2000
Step          Temp          E_pair         E_mol          TotEng         Press
66000   294.79138     -5107.7689      0             -5085.8587     -79898.403
Loop time of 4.57901 on 4 procs for 2000 steps with 576 atoms

next var
jump input.lammps loop
change_box all z scale 1.005 remap
Changing box ...
  orthogonal box = (1.2258943 1.2587857 -3.1886859) to (19.359683 19.326792 23.774264)
run 2000
Step          Temp          E_pair         E_mol          TotEng         Press
68000   321.29818     -5105.3562      0             -5081.4758     -80033.633
Loop time of 4.60861 on 4 procs for 2000 steps with 576 atoms

next var
jump input.lammps loop
change_box all z scale 1.005 remap
Changing box ...
  orthogonal box = (1.2258943 1.2587857 -3.2560933) to (19.359683 19.326792 23.841671)
run 2000
Step          Temp          E_pair         E_mol          TotEng         Press
70000   301.34019     -5103.486       0             -5081.089      -79857.79
Loop time of 4.58506 on 4 procs for 2000 steps with 576 atoms

next var
jump input.lammps loop
change_box all z scale 1.005 remap
Changing box ...
  orthogonal box = (1.2258943 1.2587857 -3.3238377) to (19.359683 19.326792 23.909415)
run 2000
Step          Temp          E_pair         E_mol          TotEng         Press
72000   310.65909     -5101.6108      0             -5078.5212     -77409.732
Loop time of 4.57751 on 4 procs for 2000 steps with 576 atoms

next var
jump input.lammps loop
change_box all z scale 1.005 remap
Changing box ...
  orthogonal box = (1.2258943 1.2587857 -3.3919208) to (19.359683 19.326792 23.977499)
run 2000
Step          Temp          E_pair         E_mol          TotEng         Press
74000   296.51848     -5098.0901      0             -5076.0515     -79647.976
Loop time of 4.55799 on 4 procs for 2000 steps with 576 atoms

next var
jump input.lammps loop
change_box all z scale 1.005 remap
Changing box ...
  orthogonal box = (1.2258943 1.2587857 -3.4603444) to (19.359683 19.326792 24.045922)
run 2000
Step          Temp          E_pair         E_mol          TotEng         Press
76000   303.4072      -5098.5604      0             -5076.0098     -84967.052
Loop time of 4.66818 on 4 procs for 2000 steps with 576 atoms

next var
jump input.lammps loop
change_box all z scale 1.005 remap
Changing box ...
  orthogonal box = (1.2258943 1.2587857 -3.52911) to (19.359683 19.326792 24.114688)
run 2000
Step          Temp          E_pair         E_mol          TotEng         Press
78000   298.38338     -5095.5775      0             -5073.4002     -79411.792
Loop time of 4.68248 on 4 procs for 2000 steps with 576 atoms

next var
jump input.lammps loop
change_box all z scale 1.005 remap
Changing box ...
  orthogonal box = (1.2258943 1.2587857 -3.5982195) to (19.359683 19.326792 24.183797)
run 2000
Loop time of 4.62809 on 4 procs for 2000 steps with 576 atoms

next var
jump input.lammps loop
change_box all z scale 1.005 remap
Changing box ...
  orthogonal box = (1.2258943 1.2587857 -3.6676746) to (19.359683 19.326792 24.253252)
run 2000
Loop time of 4.61073 on 4 procs for 2000 steps with 576 atoms

next var
jump input.lammps loop
change_box all z scale 1.005 remap
Changing box ...
  orthogonal box = (1.2258943 1.2587857 -3.7374769) to (19.359683 19.326792 24.323055)
run 2000
Loop time of 4.76533 on 4 procs for 2000 steps with 576 atoms

next var
jump input.lammps loop
change_box all z scale 1.005 remap
Changing box ...
  orthogonal box = (1.2258943 1.2587857 -3.8076282) to (19.359683 19.326792 24.393206)
run 2000
Loop time of 4.85981 on 4 procs for 2000 steps with 576 atoms

next var
jump input.lammps loop
change_box all z scale 1.005 remap
Changing box ...
  orthogonal box = (1.2258943 1.2587857 -3.8781303) to (19.359683 19.326792 24.463708)
run 2000
Loop time of 4.85485 on 4 procs for 2000 steps with 576 atoms

next var
jump input.lammps loop
run 20000
Loop time of 48.6776 on 4 procs for 20000 steps with 576 atoms

write_data dilatedSiO.data
System init for write_data ...
