LAMMPS (23 Jun 2022 - Update 4)
# Initialisation for graphene

variable T equal 300

units real
atom_style molecular
boundary f f f
pair_style lj/cut 14

bond_style harmonic
angle_style harmonic
dihedral_style opls
improper_style harmonic

special_bonds lj 0.0 0.0 0.5

read_data carbon.data
Reading data file ...
  orthogonal box = (-20.965628 -19.438999 -40) to (59.034372 60.561001 40)
  reading atoms ...
  680 atoms
  scanning bonds ...
  scanning angles ...
  scanning dihedrals ...
  scanning impropers ...
  reading bonds ...
  983 bonds
  reading angles ...
  1894 angles
  reading dihedrals ...
  3665 dihedrals
  reading impropers ...
  608 impropers
Finding 1-2 1-3 1-4 neighbors ...
     3 = max # of 1-2 neighbors
     6 = max # of 1-3 neighbors
    18 = max # of 1-4 neighbors
    18 = max # of special neighbors

include PARM.lammps
pair_coeff 1 1 0.066047 3.4
bond_coeff 1 469 1.4
angle_coeff 1 63 120
dihedral_coeff 1 0 7.25 0 0
improper_coeff 1 5 180

group gcar type 1
680 atoms in group gcar
variable xcm equal -1*xcm(gcar,x)
variable ycm equal -1*xcm(gcar,y)
variable zcm equal -1*xcm(gcar,z)
displace_atoms gcar move -19.0343724705885 -20.5609999750002 -0
Displacing atoms ...

change_box all x final -35.0 35.0 y final -35.0 35.0 z final -15.0 15.0
Changing box ...
  orthogonal box = (-35 -19.438999 -40) to (35 60.561001 40)
  orthogonal box = (-35 -35 -40) to (35 35 40)
  orthogonal box = (-35 -35 -15) to (35 35 15)

variable xmax equal bound(gcar,xmax)-0.5
variable xmin equal bound(gcar,xmin)+0.5
region rtop block 19.7623955294115 INF INF INF INF INF
region rbot block INF -19.7623964705885 INF INF INF INF
region rmid block -19.7623964705885 19.7623955294115 INF INF INF INF

group gtop region rtop
20 atoms in group gtop
group gbot region rbot
20 atoms in group gbot
group gmid region rmid
640 atoms in group gmid

velocity gmid create 300 48455 mom yes rot yes
fix mynve all nve
compute Tmid gmid temp
fix myber gmid temp/berendsen 300 300 100
fix_modify myber temp Tmid

fix mysf1 gtop setforce 0 NULL 0
fix mysf2 gbot setforce 0 NULL 0
velocity gtop set 0 NULL 0
velocity gbot set 0 NULL 0

variable L equal xcm(gtop,x)-xcm(gbot,x)
fix at2 all ave/time 10 100 1000 v_L file length.dat
fix at3 all ave/time 10 100 1000 f_mysf1[1] f_mysf2[1] file force.dat
dump mydmp all atom 1000 dump.lammpstrj

thermo 100
thermo_modify temp Tmid

timestep 1.0
run 5000
Generated 0 of 0 mixed pair_coeff terms from geometric mixing rule
  update every 1 steps, delay 10 steps, check yes
Step          Temp          E_pair         E_mol          TotEng         Press
0   300            422.56663      149.37308      1143.361      -1967.3468
Averages over the last 26 of 51 rows, steps 2500 to 5000:
Temp E_pair E_mol TotEng Press
297.704 476.799 660.122 1703.97 -1013.8
Loop time of 6.29962 on 1 procs for 5000 steps with 680 atoms

#OPTION A: Incremental Elongation
variable var loop 10
    label loop
    displace_atoms gtop move 0.1 0 0
Displacing atoms ...
    displace_atoms gbot move -0.1 0 0
Displacing atoms ...
    run 1000
Generated 0 of 0 mixed pair_coeff terms from geometric mixing rule
Step          Temp          E_pair         E_mol          TotEng         Press
5000   292.01869      426.55136      911.38531      1894.1557     -2877.3143
Averages over the last 6 of 11 rows, steps 5500 to 6000:
Temp E_pair E_mol TotEng Press
301.61 468.805 701.876 1745.17 -1452.85
Loop time of 1.25712 on 1 procs for 1000 steps with 680 atoms

    next var
    jump input.lammps loop
    displace_atoms gtop move 0.1 0 0
Displacing atoms ...
    displace_atoms gbot move -0.1 0 0
Displacing atoms ...
    run 1000
Generated 0 of 0 mixed pair_coeff terms from geometric mixing rule
Step          Temp          E_pair         E_mol          TotEng         Press
6000   284.62049      491.71374      987.86029      2021.7014     -1494.1254
Averages over the last 6 of 11 rows, steps 6500 to 7000:
Temp E_pair E_mol TotEng Press
301.344 453.402 784.086 1811.47 -2100.13
Loop time of 1.26217 on 1 procs for 1000 steps with 680 atoms

    next var
    jump input.lammps loop
    displace_atoms gtop move 0.1 0 0
Displacing atoms ...
    displace_atoms gbot move -0.1 0 0
Displacing atoms ...
    run 1000
Generated 0 of 0 mixed pair_coeff terms from geometric mixing rule
Step          Temp          E_pair         E_mol          TotEng         Press
7000   312.95883      431.06458      1130.5149      2157.6839     -3200.0863
Averages over the last 6 of 11 rows, steps 7500 to 8000:
Temp E_pair E_mol TotEng Press
297.974 435.341 889.017 1891.92 -2924.4
Loop time of 1.25906 on 1 procs for 1000 steps with 680 atoms

    next var
    jump input.lammps loop
    displace_atoms gtop move 0.1 0 0
Displacing atoms ...
    displace_atoms gbot move -0.1 0 0
Displacing atoms ...
    run 1000
Generated 0 of 0 mixed pair_coeff terms from geometric mixing rule
Step          Temp          E_pair         E_mol          TotEng         Press
8000   295.80087      422.06431      1248.7591      2234.2465     -3770.3279
Averages over the last 6 of 11 rows, steps 8500 to 9000:
Temp E_pair E_mol TotEng Press
301.096 438.776 984.558 1996.84 -3181.28
Loop time of 1.2624 on 1 procs for 1000 steps with 680 atoms

    next var
    jump input.lammps loop
    displace_atoms gtop move 0.1 0 0
Displacing atoms ...
    displace_atoms gbot move -0.1 0 0
Displacing atoms ...
    run 1000
Generated 0 of 0 mixed pair_coeff terms from geometric mixing rule
Step          Temp          E_pair         E_mol          TotEng         Press
9000   321.00049      438.66231      1265.3352      2315.4192     -3580.5295
Averages over the last 6 of 11 rows, steps 9500 to 10000:
Temp E_pair E_mol TotEng Press
304.29 413.848 1107.27 2100.71 -4127.15
Loop time of 1.25838 on 1 procs for 1000 steps with 680 atoms

    next var
    jump input.lammps loop
    displace_atoms gtop move 0.1 0 0
Displacing atoms ...
    displace_atoms gbot move -0.1 0 0
Displacing atoms ...
    run 1000
Generated 0 of 0 mixed pair_coeff terms from geometric mixing rule
Step          Temp          E_pair         E_mol          TotEng         Press
10000   331.12191      385.0239       1404.0944      2419.8186     -5266.9826
Averages over the last 6 of 11 rows, steps 10500 to 11000:
Temp E_pair E_mol TotEng Press
307.566 414.939 1227.42 2228.2 -4450.8
Loop time of 1.25073 on 1 procs for 1000 steps with 680 atoms

    next var
    jump input.lammps loop
    displace_atoms gtop move 0.1 0 0
Displacing atoms ...
    displace_atoms gbot move -0.1 0 0
Displacing atoms ...
    run 1000
Generated 0 of 0 mixed pair_coeff terms from geometric mixing rule
Step          Temp          E_pair         E_mol          TotEng         Press
11000   333.071        428.86896      1443.1338      2506.4156     -4493.2706
Averages over the last 6 of 11 rows, steps 11500 to 12000:
Temp E_pair E_mol TotEng Press
300.357 400.289 1393.93 2366.32 -5219.48
Loop time of 1.25599 on 1 procs for 1000 steps with 680 atoms

    next var
    jump input.lammps loop
    displace_atoms gtop move 0.1 0 0
Displacing atoms ...
    displace_atoms gbot move -0.1 0 0
Displacing atoms ...
    run 1000
Generated 0 of 0 mixed pair_coeff terms from geometric mixing rule
Step          Temp          E_pair         E_mol          TotEng         Press
12000   325.81583      375.86483      1688.1548      2684.6133     -6264.2755
Averages over the last 6 of 11 rows, steps 12500 to 13000:
Temp E_pair E_mol TotEng Press
296.079 394.813 1561.78 2520.55 -5814.15
Loop time of 1.25402 on 1 procs for 1000 steps with 680 atoms

    next var
    jump input.lammps loop
    displace_atoms gtop move 0.1 0 0
Displacing atoms ...
    displace_atoms gbot move -0.1 0 0
Displacing atoms ...
    run 1000
Generated 0 of 0 mixed pair_coeff terms from geometric mixing rule
Step          Temp          E_pair         E_mol          TotEng         Press
13000   326.88395      401.74799      1804.5998      2828.9759     -6078.1578
Averages over the last 6 of 11 rows, steps 13500 to 14000:
Temp E_pair E_mol TotEng Press
298.03 390.863 1744.83 2703.37 -6370.57
Loop time of 1.2501 on 1 procs for 1000 steps with 680 atoms

    next var
    jump input.lammps loop
    displace_atoms gtop move 0.1 0 0
Displacing atoms ...
    displace_atoms gbot move -0.1 0 0
Displacing atoms ...
    run 1000
Generated 0 of 0 mixed pair_coeff terms from geometric mixing rule
Step          Temp          E_pair         E_mol          TotEng         Press
14000   296.01113      378.57548      2119.2418      3061.6408     -7189.5001
Averages over the last 6 of 11 rows, steps 14500 to 15000:
Temp E_pair E_mol TotEng Press
287.343 379.726 1968.52 2895.56 -7177.01
Loop time of 1.25056 on 1 procs for 1000 steps with 680 atoms

    next var
    jump input.lammps loop
