LAMMPS (29 Sep 2021 - Update 2)
# define a bunch of variables
variable sigma equal 3.405 # Angstrom
variable epsilon equal 0.238 # Kcal/mol
variable U0 equal 10*0.238
variable dlt equal 0.5 # Angstrom
variable x0 equal 5.0  # Angstrom
variable k equal 1.5 # Kcal/mol/Angstrom^2

# initialise the simulation
units real
atom_style atomic
pair_style lj/cut 3.822 # 2^(1/6) * 3.405 WCA potential
pair_modify shift yes
boundary p p p

# define the system
region myreg block -25 25 -20 20 -20 20
create_box 2 myreg
Created orthogonal box = (-25.000000 -20.000000 -20.000000) to (25.000000 20.000000 20.000000)
create_atoms 2 single 0 0 0
Created 1 atoms
create_atoms 1 random 5 341341 myreg
Created 5 atoms

# settings
mass * 39.948
pair_coeff * * 0.238 3.405
neigh_modify every 1 delay 4 check yes
group topull type 2
1 atoms in group topull

# run
variable U atom 2.38*atan((x+5)/0.5)-2.38*atan((x-5)/0.5)
variable F atom 2.38/((x-5)^2/0.5^2+1)/0.5-2.38/((x+5)^2/0.5^2+1)/0.5
fix pot all addforce v_F 0.0 0.0 energy v_U

fix mynve all nve
fix mylgv all langevin 119.8 119.8 100 1530917
timestep 2.0
thermo 100000
run 2000000
  update every 1 steps, delay 4 steps, check yes
Step Temp E_pair E_mol TotEng Press
0            0            0            0            0            0
Averages over the last 11 of 21 rows, steps 1000000 to 2000000:
Temp E_pair E_mol TotEng Press
144.718 0 0 2.15688 1.23245
Loop time of 25.4849 on 4 procs for 2000000 steps with 6 atoms

reset_timestep 0

dump mydmp all atom 1000000 dump.lammpstrj

variable a loop 50
label loop
variable xdes equal 1-25
variable xave equal xcm(topull,x)
fix mytth topull spring tether 1.5 -24 0 0 0
run 200000
Step Temp E_pair E_mol TotEng Press
0    129.80831            0            0    1.9346696    1.1054769
Loop time of 2.45218 on 4 procs for 200000 steps with 6 atoms

fix myat1 all ave/time 10 10 100 v_xave v_xdes file position.1.dat
run 200000
Step Temp E_pair E_mol TotEng Press
200000    169.56787            0            0     2.527248    1.4440783
Loop time of 4.10661 on 4 procs for 200000 steps with 6 atoms

unfix myat1
next a
jump SELF loop
variable xdes equal 2-25
variable xave equal xcm(topull,x)
fix mytth topull spring tether 1.5 -23 0 0 0
run 200000
Step Temp E_pair E_mol TotEng Press
400000     67.93368            0            0     1.012487   0.57853856
Loop time of 3.50037 on 4 procs for 200000 steps with 6 atoms

fix myat1 all ave/time 10 10 100 v_xave v_xdes file position.2.dat
run 200000
Step Temp E_pair E_mol TotEng Press
600000    180.31147            0            0    2.6873712    1.5355732
Loop time of 4.30082 on 4 procs for 200000 steps with 6 atoms

unfix myat1
next a
jump SELF loop
variable xdes equal 3-25
variable xave equal xcm(topull,x)
fix mytth topull spring tether 1.5 -22 0 0 0
run 200000
Step Temp E_pair E_mol TotEng Press
800000    207.15596            0            0    3.0874629     1.764187
Loop time of 3.42427 on 4 procs for 200000 steps with 6 atoms

fix myat1 all ave/time 10 10 100 v_xave v_xdes file position.3.dat
run 200000
Step Temp E_pair E_mol TotEng Press
1000000    108.92763            0            0    1.6234629    0.9276523
Loop time of 4.56847 on 4 procs for 200000 steps with 6 atoms

unfix myat1
next a
jump SELF loop
variable xdes equal 4-25
variable xave equal xcm(topull,x)
fix mytth topull spring tether 1.5 -21 0 0 0
run 200000
Step Temp E_pair E_mol TotEng Press
1200000    108.00888            0            0    1.6097698   0.91982806
Loop time of 3.09452 on 4 procs for 200000 steps with 6 atoms

fix myat1 all ave/time 10 10 100 v_xave v_xdes file position.4.dat
run 200000
Step Temp E_pair E_mol TotEng Press
1400000    70.998236            0            0    1.0581613   0.60463701
Loop time of 3.50248 on 4 procs for 200000 steps with 6 atoms

unfix myat1
next a
jump SELF loop
variable xdes equal 5-25
variable xave equal xcm(topull,x)
fix mytth topull spring tether 1.5 -20 0 0 0
run 200000
Step Temp E_pair E_mol TotEng Press
1600000    244.24397            0            0    3.6402244    2.0800368
Loop time of 2.42466 on 4 procs for 200000 steps with 6 atoms

fix myat1 all ave/time 10 10 100 v_xave v_xdes file position.5.dat
run 200000
Step Temp E_pair E_mol TotEng Press
1800000    142.78062            0            0    2.1280096     1.215952
Loop time of 3.82034 on 4 procs for 200000 steps with 6 atoms

unfix myat1
next a
jump SELF loop
variable xdes equal 6-25
variable xave equal xcm(topull,x)
fix mytth topull spring tether 1.5 -19 0 0 0
run 200000
Step Temp E_pair E_mol TotEng Press
2000000    186.16418            0            0    2.7746003    1.5854162
Loop time of 2.85786 on 4 procs for 200000 steps with 6 atoms

fix myat1 all ave/time 10 10 100 v_xave v_xdes file position.6.dat
run 200000
Step Temp E_pair E_mol TotEng Press
2200000    223.90152            0            0    3.3370396     1.906796
Loop time of 3.37362 on 4 procs for 200000 steps with 6 atoms

unfix myat1
next a
jump SELF loop
variable xdes equal 7-25
variable xave equal xcm(topull,x)
fix mytth topull spring tether 1.5 -18 0 0 0
run 200000
Step Temp E_pair E_mol TotEng Press
2400000    114.82209            0            0    1.7113142   0.97785086
Loop time of 2.37524 on 4 procs for 200000 steps with 6 atoms

fix myat1 all ave/time 10 10 100 v_xave v_xdes file position.7.dat
run 200000
Step Temp E_pair E_mol TotEng Press
2600000    127.23124            0            0    1.8962609      1.08353
Loop time of 3.49593 on 4 procs for 200000 steps with 6 atoms

unfix myat1
next a
jump SELF loop
variable xdes equal 8-25
variable xave equal xcm(topull,x)
fix mytth topull spring tether 1.5 -17 0 0 0
run 200000
Step Temp E_pair E_mol TotEng Press
2800000    147.57373            0            0    2.1994463    1.2567712
Loop time of 2.44369 on 4 procs for 200000 steps with 6 atoms

fix myat1 all ave/time 10 10 100 v_xave v_xdes file position.8.dat
run 200000
Step Temp E_pair E_mol TotEng Press
3000000    76.294015            0            0    1.1370898   0.64973707
Loop time of 3.51312 on 4 procs for 200000 steps with 6 atoms

unfix myat1
next a
jump SELF loop
variable xdes equal 9-25
variable xave equal xcm(topull,x)
fix mytth topull spring tether 1.5 -16 0 0 0
run 200000
Step Temp E_pair E_mol TotEng Press
3200000    86.768089            0            0     1.293196   0.73893664
Loop time of 2.78685 on 4 procs for 200000 steps with 6 atoms

fix myat1 all ave/time 10 10 100 v_xave v_xdes file position.9.dat
run 200000
Step Temp E_pair E_mol TotEng Press
3400000    203.53266            0            0     3.033461    1.7333301
Loop time of 4.35794 on 4 procs for 200000 steps with 6 atoms

unfix myat1
next a
jump SELF loop
variable xdes equal 10-25
variable xave equal xcm(topull,x)
fix mytth topull spring tether 1.5 -15 0 0 0
run 200000
Step Temp E_pair E_mol TotEng Press
3600000    151.63111            0            0    2.2599177    1.2913248
Loop time of 3.50635 on 4 procs for 200000 steps with 6 atoms

fix myat1 all ave/time 10 10 100 v_xave v_xdes file position.10.dat
run 200000
Step Temp E_pair E_mol TotEng Press
3800000    144.28222            0            0    2.1503895      1.22874
Loop time of 4.51799 on 4 procs for 200000 steps with 6 atoms

unfix myat1
next a
jump SELF loop
variable xdes equal 11-25
variable xave equal xcm(topull,x)
fix mytth topull spring tether 1.5 -14 0 0 0
run 200000
Step Temp E_pair E_mol TotEng Press
4000000    180.76799            0            0    2.6941752     1.539461
Loop time of 3.94708 on 4 procs for 200000 steps with 6 atoms

fix myat1 all ave/time 10 10 100 v_xave v_xdes file position.11.dat
run 200000
Step Temp E_pair E_mol TotEng Press
4200000    121.49636            0            0    1.8107879    1.0346905
Loop time of 4.03752 on 4 procs for 200000 steps with 6 atoms

unfix myat1
next a
jump SELF loop
variable xdes equal 12-25
variable xave equal xcm(topull,x)
fix mytth topull spring tether 1.5 -13 0 0 0
run 200000
Step Temp E_pair E_mol TotEng Press
4400000    221.01161            0            0    3.2939681    1.8821848
Loop time of 3.85549 on 4 procs for 200000 steps with 6 atoms

fix myat1 all ave/time 10 10 100 v_xave v_xdes file position.12.dat
run 200000
Step Temp E_pair E_mol TotEng Press
4600000    91.873552            0            0     1.369288   0.78241592
Loop time of 4.60657 on 4 procs for 200000 steps with 6 atoms

unfix myat1
next a
jump SELF loop
variable xdes equal 13-25
variable xave equal xcm(topull,x)
fix mytth topull spring tether 1.5 -12 0 0 0
run 200000
Step Temp E_pair E_mol TotEng Press
4800000    94.575866            0            0    1.4095635   0.80542944
Loop time of 3.07179 on 4 procs for 200000 steps with 6 atoms

fix myat1 all ave/time 10 10 100 v_xave v_xdes file position.13.dat
run 200000
Step Temp E_pair E_mol TotEng Press
5000000     130.4093            0            0    1.9436268    1.1105951
Loop time of 4.20859 on 4 procs for 200000 steps with 6 atoms

unfix myat1
next a
jump SELF loop
variable xdes equal 14-25
variable xave equal xcm(topull,x)
fix mytth topull spring tether 1.5 -11 0 0 0
run 200000
Step Temp E_pair E_mol TotEng Press
5200000    162.76203            0            0    2.4258135    1.3861182
Loop time of 3.58547 on 4 procs for 200000 steps with 6 atoms

fix myat1 all ave/time 10 10 100 v_xave v_xdes file position.14.dat
run 200000
Step Temp E_pair E_mol TotEng Press
5400000    157.83176            0            0    2.3523325    1.3441309
Loop time of 4.19472 on 4 procs for 200000 steps with 6 atoms

unfix myat1
next a
jump SELF loop
variable xdes equal 15-25
variable xave equal xcm(topull,x)
fix mytth topull spring tether 1.5 -10 0 0 0
run 200000
Step Temp E_pair E_mol TotEng Press
5600000    78.420851            0            0    1.1687883   0.66784968
Loop time of 3.31193 on 4 procs for 200000 steps with 6 atoms

fix myat1 all ave/time 10 10 100 v_xave v_xdes file position.15.dat
run 200000
Step Temp E_pair E_mol TotEng Press
5800000    142.62423            0            0    2.1256786    1.2146201
Loop time of 3.87598 on 4 procs for 200000 steps with 6 atoms

unfix myat1
next a
jump SELF loop
variable xdes equal 16-25
variable xave equal xcm(topull,x)
fix mytth topull spring tether 1.5 -9 0 0 0
run 200000
Step Temp E_pair E_mol TotEng Press
6000000    139.24822            0            0    2.0753625    1.1858693
Loop time of 2.75385 on 4 procs for 200000 steps with 6 atoms

fix myat1 all ave/time 10 10 100 v_xave v_xdes file position.16.dat
run 200000
Step Temp E_pair E_mol TotEng Press
6200000    230.97448            0            0    3.4424552    1.9670308
Loop time of 4.07037 on 4 procs for 200000 steps with 6 atoms

unfix myat1
next a
jump SELF loop
variable xdes equal 17-25
variable xave equal xcm(topull,x)
fix mytth topull spring tether 1.5 -8 0 0 0
run 200000
Step Temp E_pair E_mol TotEng Press
6400000    109.99314            0            0    1.6393433   0.93672645
Loop time of 3.12925 on 4 procs for 200000 steps with 6 atoms

fix myat1 all ave/time 10 10 100 v_xave v_xdes file position.17.dat
run 200000
Step Temp E_pair E_mol TotEng Press
6600000    101.21993            0            0    1.5085869   0.86201176
Loop time of 4.6706 on 4 procs for 200000 steps with 6 atoms

unfix myat1
next a
jump SELF loop
variable xdes equal 18-25
variable xave equal xcm(topull,x)
fix mytth topull spring tether 1.5 -7 0 0 0
run 200000
Step Temp E_pair E_mol TotEng Press
6800000     140.1684            0            0    2.0890769    1.1937058
Loop time of 3.40155 on 4 procs for 200000 steps with 6 atoms

fix myat1 all ave/time 10 10 100 v_xave v_xdes file position.18.dat
run 200000
Step Temp E_pair E_mol TotEng Press
7000000    164.62773            0            0    2.4536199    1.4020069
Loop time of 4.15148 on 4 procs for 200000 steps with 6 atoms

unfix myat1
next a
jump SELF loop
variable xdes equal 19-25
variable xave equal xcm(topull,x)
fix mytth topull spring tether 1.5 -6 0 0 0
run 200000
Step Temp E_pair E_mol TotEng Press
7200000    203.24686            0            0    3.0292014    1.7308961
Loop time of 3.66548 on 4 procs for 200000 steps with 6 atoms

fix myat1 all ave/time 10 10 100 v_xave v_xdes file position.19.dat
run 200000
Step Temp E_pair E_mol TotEng Press
7400000    126.83276            0            0    1.8903218    1.0801364
Loop time of 4.95238 on 4 procs for 200000 steps with 6 atoms

unfix myat1
next a
jump SELF loop
variable xdes equal 20-25
variable xave equal xcm(topull,x)
fix mytth topull spring tether 1.5 -5 0 0 0
run 200000
Step Temp E_pair E_mol TotEng Press
7600000    96.583758            0            0    1.4394892   0.82252909
Loop time of 3.17049 on 4 procs for 200000 steps with 6 atoms

fix myat1 all ave/time 10 10 100 v_xave v_xdes file position.20.dat
run 200000
Loop time of 3.89706 on 4 procs for 200000 steps with 6 atoms

unfix myat1
next a
jump SELF loop
variable xdes equal 21-25
variable xave equal xcm(topull,x)
fix mytth topull spring tether 1.5 -4 0 0 0
run 200000
Loop time of 2.81266 on 4 procs for 200000 steps with 6 atoms

fix myat1 all ave/time 10 10 100 v_xave v_xdes file position.21.dat
run 200000
Loop time of 4.24889 on 4 procs for 200000 steps with 6 atoms

unfix myat1
next a
jump SELF loop
variable xdes equal 22-25
variable xave equal xcm(topull,x)
fix mytth topull spring tether 1.5 -3 0 0 0
run 200000
Loop time of 3.72787 on 4 procs for 200000 steps with 6 atoms

fix myat1 all ave/time 10 10 100 v_xave v_xdes file position.22.dat
run 200000
Loop time of 3.64672 on 4 procs for 200000 steps with 6 atoms

unfix myat1
next a
jump SELF loop
variable xdes equal 23-25
variable xave equal xcm(topull,x)
fix mytth topull spring tether 1.5 -2 0 0 0
run 200000
Loop time of 2.78327 on 4 procs for 200000 steps with 6 atoms

fix myat1 all ave/time 10 10 100 v_xave v_xdes file position.23.dat
run 200000
Loop time of 4.63794 on 4 procs for 200000 steps with 6 atoms

unfix myat1
next a
jump SELF loop
variable xdes equal 24-25
variable xave equal xcm(topull,x)
fix mytth topull spring tether 1.5 -1 0 0 0
run 200000
Loop time of 4.00447 on 4 procs for 200000 steps with 6 atoms

fix myat1 all ave/time 10 10 100 v_xave v_xdes file position.24.dat
run 200000
Loop time of 5.16507 on 4 procs for 200000 steps with 6 atoms

unfix myat1
next a
jump SELF loop
variable xdes equal 25-25
variable xave equal xcm(topull,x)
fix mytth topull spring tether 1.5 0 0 0 0
run 200000
Loop time of 2.78591 on 4 procs for 200000 steps with 6 atoms

fix myat1 all ave/time 10 10 100 v_xave v_xdes file position.25.dat
run 200000
Loop time of 4.2042 on 4 procs for 200000 steps with 6 atoms

unfix myat1
next a
jump SELF loop
variable xdes equal 26-25
variable xave equal xcm(topull,x)
fix mytth topull spring tether 1.5 1 0 0 0
run 200000
Loop time of 2.89485 on 4 procs for 200000 steps with 6 atoms

fix myat1 all ave/time 10 10 100 v_xave v_xdes file position.26.dat
run 200000
Loop time of 4.00072 on 4 procs for 200000 steps with 6 atoms

unfix myat1
next a
jump SELF loop
variable xdes equal 27-25
variable xave equal xcm(topull,x)
fix mytth topull spring tether 1.5 2 0 0 0
run 200000
Loop time of 2.64608 on 4 procs for 200000 steps with 6 atoms

fix myat1 all ave/time 10 10 100 v_xave v_xdes file position.27.dat
run 200000
Loop time of 3.70871 on 4 procs for 200000 steps with 6 atoms

unfix myat1
next a
jump SELF loop
variable xdes equal 28-25
variable xave equal xcm(topull,x)
fix mytth topull spring tether 1.5 3 0 0 0
run 200000
Loop time of 3.36942 on 4 procs for 200000 steps with 6 atoms

fix myat1 all ave/time 10 10 100 v_xave v_xdes file position.28.dat
run 200000
Loop time of 4.60273 on 4 procs for 200000 steps with 6 atoms

unfix myat1
next a
jump SELF loop
variable xdes equal 29-25
variable xave equal xcm(topull,x)
fix mytth topull spring tether 1.5 4 0 0 0
run 200000
Loop time of 3.52376 on 4 procs for 200000 steps with 6 atoms

fix myat1 all ave/time 10 10 100 v_xave v_xdes file position.29.dat
run 200000
Loop time of 5.08154 on 4 procs for 200000 steps with 6 atoms

unfix myat1
next a
jump SELF loop
variable xdes equal 30-25
variable xave equal xcm(topull,x)
fix mytth topull spring tether 1.5 5 0 0 0
run 200000
Loop time of 3.78537 on 4 procs for 200000 steps with 6 atoms

fix myat1 all ave/time 10 10 100 v_xave v_xdes file position.30.dat
run 200000
Loop time of 4.20415 on 4 procs for 200000 steps with 6 atoms

unfix myat1
next a
jump SELF loop
variable xdes equal 31-25
variable xave equal xcm(topull,x)
fix mytth topull spring tether 1.5 6 0 0 0
run 200000
Loop time of 3.66376 on 4 procs for 200000 steps with 6 atoms

fix myat1 all ave/time 10 10 100 v_xave v_xdes file position.31.dat
run 200000
Loop time of 4.49586 on 4 procs for 200000 steps with 6 atoms

unfix myat1
next a
jump SELF loop
variable xdes equal 32-25
variable xave equal xcm(topull,x)
fix mytth topull spring tether 1.5 7 0 0 0
run 200000
Loop time of 3.78218 on 4 procs for 200000 steps with 6 atoms

fix myat1 all ave/time 10 10 100 v_xave v_xdes file position.32.dat
run 200000
Loop time of 4.80539 on 4 procs for 200000 steps with 6 atoms

unfix myat1
next a
jump SELF loop
variable xdes equal 33-25
variable xave equal xcm(topull,x)
fix mytth topull spring tether 1.5 8 0 0 0
run 200000
Loop time of 3.08837 on 4 procs for 200000 steps with 6 atoms

fix myat1 all ave/time 10 10 100 v_xave v_xdes file position.33.dat
run 200000
Loop time of 4.3681 on 4 procs for 200000 steps with 6 atoms

unfix myat1
next a
jump SELF loop
variable xdes equal 34-25
variable xave equal xcm(topull,x)
fix mytth topull spring tether 1.5 9 0 0 0
run 200000
Loop time of 2.53739 on 4 procs for 200000 steps with 6 atoms

fix myat1 all ave/time 10 10 100 v_xave v_xdes file position.34.dat
run 200000
Loop time of 3.44341 on 4 procs for 200000 steps with 6 atoms

unfix myat1
next a
jump SELF loop
variable xdes equal 35-25
variable xave equal xcm(topull,x)
fix mytth topull spring tether 1.5 10 0 0 0
run 200000
Loop time of 3.26055 on 4 procs for 200000 steps with 6 atoms

fix myat1 all ave/time 10 10 100 v_xave v_xdes file position.35.dat
run 200000
Loop time of 4.22615 on 4 procs for 200000 steps with 6 atoms

unfix myat1
next a
jump SELF loop
variable xdes equal 36-25
variable xave equal xcm(topull,x)
fix mytth topull spring tether 1.5 11 0 0 0
run 200000
Loop time of 4.15423 on 4 procs for 200000 steps with 6 atoms

fix myat1 all ave/time 10 10 100 v_xave v_xdes file position.36.dat
run 200000
Loop time of 4.35441 on 4 procs for 200000 steps with 6 atoms

unfix myat1
next a
jump SELF loop
variable xdes equal 37-25
variable xave equal xcm(topull,x)
fix mytth topull spring tether 1.5 12 0 0 0
run 200000
Loop time of 3.0491 on 4 procs for 200000 steps with 6 atoms

fix myat1 all ave/time 10 10 100 v_xave v_xdes file position.37.dat
run 200000
Loop time of 4.71296 on 4 procs for 200000 steps with 6 atoms

unfix myat1
next a
jump SELF loop
variable xdes equal 38-25
variable xave equal xcm(topull,x)
fix mytth topull spring tether 1.5 13 0 0 0
run 200000
Loop time of 3.48795 on 4 procs for 200000 steps with 6 atoms

fix myat1 all ave/time 10 10 100 v_xave v_xdes file position.38.dat
run 200000
Loop time of 4.46925 on 4 procs for 200000 steps with 6 atoms

unfix myat1
next a
jump SELF loop
variable xdes equal 39-25
variable xave equal xcm(topull,x)
fix mytth topull spring tether 1.5 14 0 0 0
run 200000
Loop time of 3.14958 on 4 procs for 200000 steps with 6 atoms

fix myat1 all ave/time 10 10 100 v_xave v_xdes file position.39.dat
run 200000
Loop time of 3.95278 on 4 procs for 200000 steps with 6 atoms

unfix myat1
next a
jump SELF loop
variable xdes equal 40-25
variable xave equal xcm(topull,x)
fix mytth topull spring tether 1.5 15 0 0 0
run 200000
Loop time of 4.07595 on 4 procs for 200000 steps with 6 atoms

fix myat1 all ave/time 10 10 100 v_xave v_xdes file position.40.dat
run 200000
Loop time of 4.93303 on 4 procs for 200000 steps with 6 atoms

unfix myat1
next a
jump SELF loop
variable xdes equal 41-25
variable xave equal xcm(topull,x)
fix mytth topull spring tether 1.5 16 0 0 0
run 200000
Loop time of 3.72282 on 4 procs for 200000 steps with 6 atoms

fix myat1 all ave/time 10 10 100 v_xave v_xdes file position.41.dat
run 200000
Loop time of 5.18499 on 4 procs for 200000 steps with 6 atoms

unfix myat1
next a
jump SELF loop
variable xdes equal 42-25
variable xave equal xcm(topull,x)
fix mytth topull spring tether 1.5 17 0 0 0
run 200000
Loop time of 3.34081 on 4 procs for 200000 steps with 6 atoms

fix myat1 all ave/time 10 10 100 v_xave v_xdes file position.42.dat
run 200000
Loop time of 5.21157 on 4 procs for 200000 steps with 6 atoms

unfix myat1
next a
jump SELF loop
variable xdes equal 43-25
variable xave equal xcm(topull,x)
fix mytth topull spring tether 1.5 18 0 0 0
run 200000
Loop time of 3.43049 on 4 procs for 200000 steps with 6 atoms

fix myat1 all ave/time 10 10 100 v_xave v_xdes file position.43.dat
run 200000
Loop time of 4.65598 on 4 procs for 200000 steps with 6 atoms

unfix myat1
next a
jump SELF loop
variable xdes equal 44-25
variable xave equal xcm(topull,x)
fix mytth topull spring tether 1.5 19 0 0 0
run 200000
Loop time of 2.84489 on 4 procs for 200000 steps with 6 atoms

fix myat1 all ave/time 10 10 100 v_xave v_xdes file position.44.dat
run 200000
Loop time of 4.14978 on 4 procs for 200000 steps with 6 atoms

unfix myat1
next a
jump SELF loop
variable xdes equal 45-25
variable xave equal xcm(topull,x)
fix mytth topull spring tether 1.5 20 0 0 0
run 200000
Loop time of 3.87499 on 4 procs for 200000 steps with 6 atoms

fix myat1 all ave/time 10 10 100 v_xave v_xdes file position.45.dat
run 200000
Loop time of 4.3111 on 4 procs for 200000 steps with 6 atoms

unfix myat1
next a
jump SELF loop
variable xdes equal 46-25
variable xave equal xcm(topull,x)
fix mytth topull spring tether 1.5 21 0 0 0
run 200000
Loop time of 2.72765 on 4 procs for 200000 steps with 6 atoms

fix myat1 all ave/time 10 10 100 v_xave v_xdes file position.46.dat
run 200000
Loop time of 3.75936 on 4 procs for 200000 steps with 6 atoms

unfix myat1
next a
jump SELF loop
variable xdes equal 47-25
variable xave equal xcm(topull,x)
fix mytth topull spring tether 1.5 22 0 0 0
run 200000
Loop time of 2.7329 on 4 procs for 200000 steps with 6 atoms

fix myat1 all ave/time 10 10 100 v_xave v_xdes file position.47.dat
run 200000
Loop time of 4.76369 on 4 procs for 200000 steps with 6 atoms

unfix myat1
next a
jump SELF loop
variable xdes equal 48-25
variable xave equal xcm(topull,x)
fix mytth topull spring tether 1.5 23 0 0 0
run 200000
Loop time of 3.1935 on 4 procs for 200000 steps with 6 atoms

fix myat1 all ave/time 10 10 100 v_xave v_xdes file position.48.dat
run 200000
Loop time of 4.13055 on 4 procs for 200000 steps with 6 atoms

unfix myat1
next a
jump SELF loop
variable xdes equal 49-25
variable xave equal xcm(topull,x)
fix mytth topull spring tether 1.5 24 0 0 0
run 200000
Loop time of 2.43877 on 4 procs for 200000 steps with 6 atoms

fix myat1 all ave/time 10 10 100 v_xave v_xdes file position.49.dat
run 200000
Loop time of 4.12847 on 4 procs for 200000 steps with 6 atoms

unfix myat1
next a
jump SELF loop
variable xdes equal 50-25
variable xave equal xcm(topull,x)
fix mytth topull spring tether 1.5 25 0 0 0
run 200000
Loop time of 4.0339 on 4 procs for 200000 steps with 6 atoms

fix myat1 all ave/time 10 10 100 v_xave v_xdes file position.50.dat
run 200000
Loop time of 3.8266 on 4 procs for 200000 steps with 6 atoms

unfix myat1
next a
jump SELF loop
