LAMMPS (29 Sep 2021 - Update 2)
# Initialisation
variable T equal 300

units metal
atom_style full
boundary p p p
pair_style airebo 2.5 1 1

# System definition
read_data cnt.data
Reading data file ...
  orthogonal box = (-30.000000 -30.000000 0.0000000) to (30.000000 30.000000 100.00000)
  reading atoms ...
  700 atoms
Finding 1-2 1-3 1-4 neighbors ...
     0 = max # of 1-2 neighbors
     0 = max # of 1-3 neighbors
     0 = max # of 1-4 neighbors
     1 = max # of special neighbors
pair_coeff * * CH.airebo C
Reading airebo potential file CH.airebo with DATE: 2011-10-25

# Simulation settings
group gcar type 1
700 atoms in group gcar
variable zmax equal bound(gcar,zmax)-0.5
variable zmin equal bound(gcar,zmin)+0.5
region rtop block INF INF INF INF 55.239178 INF
region rbot block INF INF INF INF INF 0.5
region rmid block INF INF INF INF 0.5 55.239178

group gtop region rtop
10 atoms in group gtop
group gbot region rbot
10 atoms in group gbot
group gmid region rmid
680 atoms in group gmid

velocity gmid create 300 48455 mom yes rot yes
fix mynve all nve
compute Tmid gmid temp
fix myber gmid temp/berendsen 300 300 0.1
fix_modify myber temp Tmid

fix mysf1 gbot setforce NULL NULL 0
fix mysf2 gtop setforce NULL NULL 0
velocity gbot set NULL NULL 0
velocity gtop set NULL NULL 0

variable pos equal xcm(gtop,z)
fix at1 all ave/time 10 100 1000 v_pos file cnt_deflection.dat
fix at2 all ave/time 10 100 1000 f_mysf1[1] f_mysf2[1] file force.dat
dump mydmp all atom 1000 dump.lammpstrj

thermo 100
thermo_modify temp Tmid

# Run
timestep 0.0005
run 5000
  update every 1 steps, delay 10 steps, check yes
Step Temp E_pair E_mol TotEng Press
0          300   -5084.7276            0   -5058.3973   -1515.7017
Averages over the last 26 of 51 rows, steps 2500 to 5000:
Temp E_pair E_mol TotEng Press
299.293 -5064.72 0 -5038.45 -713.483
Loop time of 10.2412 on 4 procs for 5000 steps with 700 atoms

# 0.15 A/ps = 30 m/s
velocity gtop set NULL NULL 0.15
run 280000
Step Temp E_pair E_mol TotEng Press
5000    298.14327   -5064.4519            0   -5038.2846   -823.76253
Averages over the last 1401 of 2801 rows, steps 145000 to 285000:
Temp E_pair E_mol TotEng Press
316.665 -4497.88 0 -4470.08 -6089.15
Loop time of 777.709 on 4 procs for 280000 steps with 700 atoms
