LAMMPS (29 Sep 2021 - Update 2)
# ethanol at a nacl surface
# variables
variable pre equal 1 # desired pressure (Atm)
variable tem equal 300 # desired temperature (K)
# main parameters
units real # style of units (A, fs, Kcal/mol)
atom_style full # molecular + charge
bond_style harmonic
angle_style harmonic
dihedral_style harmonic
boundary p p p # periodic boundary conditions
pair_style lj/cut/coul/long 10 # cut-off 1 nm
kspace_style pppm 1.0e-4
pair_modify mix arithmetic tail yes # eij = sqrt(ei*ej), dij = 0.5*(di+dj)

# import positions and parameters
read_data data.lammps
Reading data file ...
  orthogonal box = (-14.200000 -14.200000 -25.680000) to (14.200000 14.200000 25.680000)
  reading atoms ...
  490 atoms
  scanning bonds ...
  scanning angles ...
  scanning dihedrals ...
  reading bonds ...
  80 bonds
  reading angles ...
  130 angles
  reading dihedrals ...
  120 dihedrals
Finding 1-2 1-3 1-4 neighbors ...
     4 = max # of 1-2 neighbors
     4 = max # of 1-3 neighbors
     7 = max # of 1-4 neighbors
     8 = max # of special neighbors
include PARM.lammps
# mass parameters
mass 1 22.99000
mass 2 35.45000
mass 3 12.011
mass 4 1.008
mass 5 1.008
mass 6 12.011
mass 7 15.9994

# pair coeffs
pair_coeff 1 1 0.0552 2.31
pair_coeff 2 2 0.1004 4.3
pair_coeff 3 3 0.0663 3.5812
pair_coeff 4 4 0.0281 2.3734
pair_coeff 5 5 0.0000 0.0000
pair_coeff 6 6 0.2450 2.8114
pair_coeff 7 7 0.1195 3.1000

# bond coeffs
bond_coeff 1 349.274 1.0900
bond_coeff 2 399.792 1.4300
bond_coeff 3 299.844 1.5200
bond_coeff 4 349.928 1.1000
bond_coeff 5 442.161 0.9720

# angle coeffs
angle_coeff 1 47.694 109.500
angle_coeff 2 55.127 109.500
angle_coeff 3 55.114 111.000
angle_coeff 4 52.477 107.570
angle_coeff 5 47.502 108.530
angle_coeff 6 54.993 110.300

# dihedral coeffs
dihedral_coeff 1 0.30115 1 3
dihedral_coeff 2 1.415 1 3
dihedral_coeff 3 0.0 1 1
dihedral_coeff  3 0.0 1 1
# groups # descriptions
group nacl type 1 2 # nacl wall
400 atoms in group nacl
group eth type 3 4 5 6 7 # ethanol molecules
90 atoms in group eth
# dynamics
timestep 1 # (fs)
fix mymme nacl momentum 1 linear 1 1 1
velocity all create 300 4928459 rot yes mom yes dist gaussian
fix mynpt all npt temp 300 300 100 x 1 1 1000 y 1 1 1000
# output
thermo 1000
dump dp1 all atom 1000 dump.lammpstrj # print every 1 ps
# run
run 100000 # 100 ps
PPPM initialization ...
  G vector (1/distance) = 0.26209145
  grid = 15 15 24
  stencil order = 5
  estimated absolute RMS force accuracy = 0.028007652
  estimated relative force accuracy = 8.4344212e-05
  3d grid and FFT values/proc = 5236 1440
  update every 1 steps, delay 10 steps, check yes
Step Temp E_pair E_mol TotEng Press Volume
0          300   -38657.495    1.4661238   -38218.744    -7435.384    41424.922
Averages over the last 51 of 101 rows, steps 50000 to 100000:
Temp E_pair E_mol TotEng Press Volume
302.28 -38662.9 61.0097 -38161.2 -40.3366 38947
Loop time of 95.5344 on 4 procs for 100000 steps with 490 atoms

write_data eq.data
System init for write_data ...
PPPM initialization ...
  G vector (1/distance) = 0.263794
  grid = 15 15 24
  stencil order = 5
  estimated absolute RMS force accuracy = 0.026421525
  estimated relative force accuracy = 7.9567637e-05
  3d grid and FFT values/proc = 5236 1440
