LAMMPS (28 Mar 2023 - Update 1)
# Initialisation for graphene

variable T equal 300

units real
atom_style molecular
boundary f f f
pair_style lj/cut 14

bond_style harmonic
angle_style harmonic
dihedral_style opls
improper_style harmonic

special_bonds lj 0.0 0.0 0.5

read_data carbon.data
Reading data file ...
  orthogonal box = (-20.965628 -19.438999 -40) to (59.034372 60.561001 40)
  reading atoms ...
  680 atoms
  scanning bonds ...
  scanning angles ...
  scanning dihedrals ...
  scanning impropers ...
  reading bonds ...
  983 bonds
  reading angles ...
  1894 angles
  reading dihedrals ...
  3665 dihedrals
  reading impropers ...
  608 impropers
Finding 1-2 1-3 1-4 neighbors ...
     3 = max # of 1-2 neighbors
     6 = max # of 1-3 neighbors
    18 = max # of 1-4 neighbors
    18 = max # of special neighbors

include PARM.lammps
pair_coeff 1 1 0.066047 3.4
bond_coeff 1 469 1.4
angle_coeff 1 63 120
dihedral_coeff 1 0 7.25 0 0
improper_coeff 1 5 180

group gcar type 1
680 atoms in group gcar
variable xcm equal -1*xcm(gcar,x)
variable ycm equal -1*xcm(gcar,y)
variable zcm equal -1*xcm(gcar,z)
displace_atoms gcar move -19.0343724705885 -20.5609999750002 -0
Displacing atoms ...

change_box all x final -35.0 35.0 y final -35.0 35.0 z final -15.0 15.0
Changing box ...
  orthogonal box = (-35 -19.438999 -40) to (35 60.561001 40)
  orthogonal box = (-35 -35 -40) to (35 35 40)
  orthogonal box = (-35 -35 -15) to (35 35 15)

variable xmax equal bound(gcar,xmax)-0.5
variable xmin equal bound(gcar,xmin)+0.5
region rtop block 19.7623955294115 INF INF INF INF INF
region rbot block INF -19.7623964705885 INF INF INF INF
region rmid block -19.7623964705885 19.7623955294115 INF INF INF INF

group gtop region rtop
20 atoms in group gtop
group gbot region rbot
20 atoms in group gbot
group gmid region rmid
640 atoms in group gmid

velocity gmid create 300 48455 mom yes rot yes
fix mynve all nve
compute Tmid gmid temp
fix myber gmid temp/berendsen 300 300 100
fix_modify myber temp Tmid

fix mysf1 gtop setforce 0 NULL 0
fix mysf2 gbot setforce 0 NULL 0
velocity gtop set 0 NULL 0
velocity gbot set 0 NULL 0

variable L equal xcm(gtop,x)-xcm(gbot,x)
fix at2 all ave/time 10 100 1000 v_L file length.dat
fix at3 all ave/time 10 100 1000 f_mysf1[1] f_mysf2[1] file force.dat
dump mydmp all atom 1000 dump.lammpstrj

thermo 100
thermo_modify temp Tmid

timestep 1.0
run 5000
Generated 0 of 0 mixed pair_coeff terms from geometric mixing rule
Step          Temp          E_pair         E_mol          TotEng         Press
0   300            422.56663      149.37308      1143.361      -1967.3468
Averages over the last 26 of 51 rows, steps 2500 to 5000:
Temp E_pair E_mol TotEng Press
297.704 476.799 660.122 1703.97 -1013.8
Loop time of 6.29 on 1 procs for 5000 steps with 680 atoms
