LAMMPS (29 Sep 2021 - Update 2)
# Initialisation
boundary p p p
units real
atom_style full
bond_style harmonic
angle_style harmonic
pair_style lj/cut/tip4p/long 1 2 1 1 0.1546 12.0
kspace_style pppm/tip4p 1.0e-4

# System definition
read_data ../minimization/system.data
Reading data file ...
  orthogonal box = (-16.160000 -16.160000 -52.520000) to (16.160000 16.160000 52.520000)
  reading atoms ...
  4948 atoms
  reading velocities ...
  4948 velocities
  scanning bonds ...
  scanning angles ...
  reading bonds ...
  2432 bonds
  reading angles ...
  1216 angles
Finding 1-2 1-3 1-4 neighbors ...
     2 = max # of 1-2 neighbors
     1 = max # of 1-3 neighbors
     1 = max # of 1-4 neighbors
     2 = max # of special neighbors

# Simulation settings
include ../PARM.lammps
# Parameter file
mass 1 15.9994 # water
mass 2 1.008 # water
mass 3 28.990 # ion
mass 4 35.453 # ion
mass 5 26.9815 # wall

pair_coeff 1 1 0.185199 3.1589 # water
pair_coeff 2 2 0.0 0.0 # water
pair_coeff 3 3 0.04690 2.4299 # ion
pair_coeff 4 4 0.1500 4.04470 # ion
pair_coeff 5 5 11.697 2.574 # wall

bond_coeff 1 0 0.9572 # water

angle_coeff 1 0 104.52 # water

# Define groups
group gH2O type 1 2
3648 atoms in group gH2O
group gNa type 3
10 atoms in group gNa
group gCl type 4
10 atoms in group gCl
group gliquid type 1 2 3 4
3668 atoms in group gliquid
group gwall type 5
1280 atoms in group gwall
region rtop block INF INF INF INF 0 INF
region rbot block INF INF INF INF INF 0
group gtop region rtop
2487 atoms in group gtop
group gbot region rbot
2461 atoms in group gbot
group gwalltop intersect gwall gtop
640 atoms in group gwalltop
group gwallbot intersect gwall gbot
640 atoms in group gwallbot

# visualisation
dump mydmp all atom 1000 dump.lammpstrj
thermo 50
variable walltopz equal xcm(gwalltop,z)
variable wallbotz equal xcm(gwallbot,z)
variable deltaz equal v_walltopz-v_wallbotz
fix myat1 all ave/time 10 10 100 v_deltaz file interwall_distance.dat

# Dynamics
fix mynve all nve
compute tliq gliquid temp
fix myber1 gliquid temp/berendsen 300 300 100
fix_modify myber1 temp tliq
compute twall gwall temp
fix myber2 gwall temp/berendsen 300 300 100
fix_modify myber2 temp twall
fix myshk gH2O shake 1.0e-4 200 0 b 1 a 1
       0 = # of size 2 clusters
       0 = # of size 3 clusters
       0 = # of size 4 clusters
    1216 = # of frozen angles
  find clusters CPU = 0.001 seconds
fix myrct all recenter NULL NULL INIT

timestep 1.0
run 20000
PPPM initialization ...
  extracting TIP4P info from pair style
  G vector (1/distance) = 0.21735333
  grid = 15 15 36
  stencil order = 5
  estimated absolute RMS force accuracy = 0.02944634
  estimated relative force accuracy = 8.8676777e-05
  3d grid and FFT values/proc = 6776 2025
  update every 1 steps, delay 10 steps, check yes
Step Temp E_pair E_mol TotEng Press
0    1.0206449   -121024.53            0   -121013.18   -12550.979
Averages over the last 201 of 401 rows, steps 10000 to 20000:
Temp E_pair E_mol TotEng Press
299.921 -122549 0 -119213 -8159.11
Loop time of 761.438 on 4 procs for 20000 steps with 4948 atoms

write_data system.data
System init for write_data ...
PPPM initialization ...
  extracting TIP4P info from pair style
  G vector (1/distance) = 0.21735333
  grid = 15 15 36
  stencil order = 5
  estimated absolute RMS force accuracy = 0.02944634
  estimated relative force accuracy = 8.8676777e-05
  3d grid and FFT values/proc = 6776 2025
