LAMMPS (23 Jun 2022 - Update 4)
# SiO amorphous silica deformed with reaxff potential

units real
atom_style full

read_data ../RelaxSilica/silica.data
Reading data file ...
  orthogonal box = (-3.1662119 2.4397298 1.5469185) to (23.75179 18.145848 19.038659)
  reading atoms ...
  576 atoms
  reading velocities ...
  576 velocities
Finding 1-2 1-3 1-4 neighbors ...
     0 = max # of 1-2 neighbors
     0 = max # of 1-3 neighbors
     0 = max # of 1-4 neighbors
     1 = max # of special neighbors

mass 1 28.0855 # Si
mass 2 15.999 # O

pair_style reaxff NULL safezone 3.0 mincap 150
pair_coeff * * ../RelaxSilica/reaxCHOFe.ff Si O
fix myqeq all qeq/reaxff 1 0.0 10.0 1.0e-6 reaxff maxiter 400

neighbor 0.5 bin
neigh_modify every 5 delay 0 check yes

group grpSi type 1
192 atoms in group grpSi
group grpO type 2
384 atoms in group grpO
variable totqSi equal charge(grpSi)
variable totqO equal charge(grpO)
variable nSi equal count(grpSi)
variable nO equal count(grpO)
variable qSi equal v_totqSi/192
variable qO equal v_totqO/384

dump dmp all custom 100 dump-deform.lammpstrj id type q x y z
thermo 100
thermo_style custom step temp etotal press vol v_qSi v_qO

fix mydef all deform 1 x erate 5e-5
fix mynvt all nvt temp 300.0 300.0 100
timestep 0.5

thermo 100
run 25000

CITE-CITE-CITE-CITE-CITE-CITE-CITE-CITE-CITE-CITE-CITE-CITE-CITE

Your simulation uses code contributions which should be cited:

- pair reaxff command:

@Article{Aktulga12,
 author = {H. M. Aktulga, J. C. Fogarty, S. A. Pandit, A. Y. Grama},
 title = {Parallel reactive molecular dynamics: Numerical methods and algorithmic techniques},
 journal = {Parallel Computing},
 year =    2012,
 volume =  38,
 pages =   {245--259}
}

- fix qeq/reaxff command:

@Article{Aktulga12,
 author = {H. M. Aktulga, J. C. Fogarty, S. A. Pandit, A. Y. Grama},
 title = {Parallel reactive molecular dynamics: Numerical methods and algorithmic techniques},
 journal = {Parallel Computing},
 year =    2012,
 volume =  38,
 pages =   {245--259}
}

CITE-CITE-CITE-CITE-CITE-CITE-CITE-CITE-CITE-CITE-CITE-CITE-CITE

  update every 5 steps, delay 0 steps, check yes
Step          Temp          TotEng         Press          Volume         v_qSi           v_qO
0   3.0455009e+08  5.2190516e+08  3.22695e+09    7395.1112      1.8719625     -0.93598127
Averages over the last 126 of 251 rows, steps 12500 to 25000:
Temp TotEng Press Volume v_qSi v_qO
0.000694429 -77131.3 -203851 10861.6 1.37135 -0.685673
Loop time of 662.41 on 4 procs for 25000 steps with 576 atoms

unfix mydef
undump dmp

dump dmp all custom 100 dump.lammpstrj id type q x y z

run 2000
Step          Temp          TotEng         Press          Volume         v_qSi           v_qO
25000   0.0016962447  -73622.598     -191739.72      12017.056      1.3028468     -0.65142339
Averages over the last 11 of 21 rows, steps 26000 to 27000:
Temp TotEng Press Volume v_qSi v_qO
0.00136746 -74808.4 -166212 12017.1 1.3338 -0.666902
Loop time of 32.1763 on 4 procs for 2000 steps with 576 atoms

write_data silica-deformed.data
System init for write_data ...
